TITLE
sonda M35 (miniSipm)
#define x_probe 0.
#define y_probe 0.
#define z_probe 0.0
#define h_allu 0.0015
* Set the defaults for precision simulations
DEFAULTS                                                              PRECISIO
* Define the beam characteristics
BEAM         -0.0023                                                  ELECTRON
* Define the beam position
BEAMPOS           0.        0.        0.
* if the source is needed
*SOURCE           0.0      0.01       0.0        0.       0.0       0.0
EMF
EMFFIX        PTERPH      0.01       ABS      0.01  ALUMINUM      0.01NOPRINT
EMFCUT        -1E-05      1E-6                ARIA  @LASTREG
EMFCUT        -1E-05      1E-6            HYDROGEN  @LASTMAT          PROD-CUT
*RADDECAY          2.
DELTARAY      1.0E-5                      HYDROGEN  @LASTMAT
USERDUMP        100.       90.       0.0        1.                    DUMP
OPT-PROD     2.95E-9    0.0826   3.0E-08    PTERPH                    SCINTILL
OPT-PROD                                    PTERPH                    CERE-OFF
OPT-PROP     1.0E-05    4.2E-5    6.0E-5    PTERPH                    WV-LIMIT
OPT-PROP        1.65       0.5       0.2    PTERPH
OPT-PROP                              0.  ALUMINUM                    METAL
OPT-PROP         1.5                           ABS
ROT-DEFI        200.       0.0                 0.0       0.0      -0.1trlProbe
GEOBEGIN                                                              COMBNAME
    0    0          
* Black body
SPH blkbody    0.0 0.0 0.0 100000.0
* Void sphere
SPH void       0.0 0.0 0.0 10000.0
$start_transform -trlProbe
* **probe
!@what.1=x_probe
!@what.2=y_probe
!@what.3=z_probe
!@what.6=0.3+h_allu+0.2
RCC rcprobe    0.0 0.0 0.0 0.0 0.0 0.5015000000000001 0.61
!@what.1=x_probe
!@what.2=y_probe
ZCC cpter      0.0 0.0 0.25
!@what.1=z_probe+h_allu
XYP pallu      0.0015
!@what.1=z_probe+0.3+h_allu
XYP ppterf     0.3015
!@what.1=x_probe-0.05
!@what.2=x_probe+0.05
!@what.3=y_probe-0.05
!@what.4=y_probe+0.05
!@what.5=z_probe+0.2
!@what.6=z_probe+0.3+h_allu+0.1
RPP sipm       -0.05 0.05 -0.05 0.05 0.2 0.40149999999999997
* **end probe
$end_transform 
RCC bkg        0.0 0.0 -.85 0.0 0.0 0.85 1.0
RCC srg        0.0 0.0 -0.4 0.0 0.0 0.45 .3
END
* Black hole
BLKBODY      5 +blkbody -void
* Void around
ARIA         5 +void -rcprobe -bkg
PROBE        5 +rcprobe -ppterf -sipm
PTERF        5 +cpter +ppterf -pallu
ALL          5 +rcprobe +pallu
PVC          5 +rcprobe -cpter +ppterf -pallu
PMT          5 +sipm -ppterf
CAP_SOU      5 +bkg +srg
SPA_SOU      5 +bkg -srg
* CAP_SOU
* SPA_SOU
END
GEOEND
* ====================  material ====================
MATERIAL                           1.223       26.                    PTERPH
COMPOUND        18.0    CARBON      14.0  HYDROGEN                    PTERPH
* 2-Methyl - 1,3-Butadiene
* Chemical          H                      H
* Formula             \                  /
*                       C == C -- C == C
*  C  H               /      |    |      \
*   5  8            H      H-C-H  H        H
*                            H
MATERIAL                           0.681                              2_Methy_
COMPOUND         8.0  HYDROGEN       5.0    CARBON                    2_Methy_
* 600 Styrene
* Chemical              H-C = C-H         H
* Formula                /     \          |
*                   H - C       C -- C == C
*   C  H                 \\   //     |    |
*    8  8                 C - C      H    H
*                         |   |
*                         H   H
MATERIAL                           0.906                              Styrene
COMPOUND         8.0  HYDROGEN       8.0    CARBON                    Styrene
* Polyacrylonitrile (C3_H3_N)n
*
MATERIAL                            1.17                              PACRYLNI
COMPOUND         3.0  HYDROGEN       3.0    CARBON       1.0  NITROGENPACRYLNI
MATERIAL                            0.70                              ABS
COMPOUND         1.0   Styrene       1.0  PACRYLNI       1.0  2_Methy_ABS
ASSIGNMA    BLCKHOLE   BLKBODY
ASSIGNMA         AIR      ARIA
* materiali sonda
ASSIGNMA    BLCKHOLE     PROBE
ASSIGNMA    ALUMINUM       ALL
ASSIGNMA         ABS       PVC
ASSIGNMA     SILICON       PMT
ASSIGNMA      PTERPH     PTERF
* end sonda
ASSIGNMA      SILVER   SPA_SOU
ASSIGNMA        GOLD   CAP_SOU
* usrcall
USRICALL
* Set the random number seed
RANDOMIZ         1.0
* Set the number of primary histories to be simulated in the run
START
STOP
